VERSION 18
*******************************************************************************
*** TRNSYS input file (deck) generated by TrnsysStudio
*** on Wednesday, April 22, 2020 at 12:02
*** from TrnsysStudio project: C:\software\trnsystor\tests\input_files\tpfs\Type951.tpf
*** 
*** If you edit this file, use the File/Import TRNSYS Input File function in 
*** TrnsysStudio to update the project. 
*** 
*** If you have problems, questions or suggestions please contact your local 
*** TRNSYS distributor or mailto:software@cstb.fr 
*** 
*******************************************************************************


*******************************************************************************
*** Units 
*******************************************************************************

*******************************************************************************
*** Control cards
*******************************************************************************
* START, STOP and STEP
CONSTANTS 3
START=0
STOP=168
STEP=0.125
SIMULATION 	 START	 STOP	 STEP	! Start time	End time	Time step
TOLERANCES 0.001 0.001			! Integration	 Convergence
LIMITS 30 30 30				! Max iterations	Max warnings	Trace limit
DFQ 1					! TRNSYS numerical integration solver method
WIDTH 80				! TRNSYS output file width, number of characters
LIST 					! NOLIST statement
					! MAP statement
SOLVER 0 1 1				! Solver statement	Minimum relaxation factor	Maximum relaxation factor
NAN_CHECK 0				! Nan DEBUG statement
OVERWRITE_CHECK 0			! Overwrite DEBUG statement
TIME_REPORT 0			! disable time report
EQSOLVER 0				! EQUATION SOLVER statement
* User defined CONSTANTS 
*$USER_CONSTANTS
EQUATIONS 1
nPlots = (STOP-START)/168.
*$USER_CONSTANTS_END


* Model "Type951" (Type 951)
* 

UNIT 2 TYPE 951	 Type951
*$UNIT_NAME Type951
*$MODEL .\GHP Library (TESS)\Buried Horizontal Pipes\Twin-Pipe System\Type951.tmf
*$POSITION 590 404
*$LAYER Main # 
PARAMETERS 35
24.384		! 1 Length of Buried Pipe
0.02618		! 2 Inner Diameter of Pipes
0.03198		! 3 Outer Diameter of Pipes
1.37067		! 4 Thermal Conductivity of Pipe Material
3.0		! 5 Buried Pipe Depth
2		! 6 Direction of Second Pipe Flow
0.17526		! 7 Diameter of Casing Material
0.14537		! 8 Thermal Conductivity of Fill Insulation
0.06911		! 9 Center-to-Center Pipe Spacing
8.722		! 10 Thermal Conductivity of Gap Material
0.0000		! 11 Gap Thickness
1000.0		! 12 Density of Fluid
2.2068		! 13 Thermal Conductivity of Fluid
4.19		! 14 Specific Heat of Fluid
3.078		! 15 Viscosity of Fluid
10.0		! 16 Initial Fluid Temperature - Pipe 1
10.0		! 17 Initial Fluid Temperature - Pipe 2
8.722		! 18 Thermal Conductivity of Soil
2500.0		! 19 Density of Soil
0.84		! 20 Specific Heat of Soil
7.96		! 21 Average Surface Temperature
13.32		! 22 Amplitude of Surface Temperature
36		! 23 Day of Minimum Surface Temperature
100		! 24 Number of Fluid Nodes
8		! 25 Number of Radial Soil Nodes
10		! 26 Number of Axial Soil Nodes
4		! 27 Number of Circumferential Soil Nodes
0.0254		! 28 Radial Distance of Node -1
0.0254		! 29 Radial Distance of Node -2
0.0254		! 30 Radial Distance of Node -3
0.0254		! 31 Radial Distance of Node -4
0.0254		! 32 Radial Distance of Node -5
0.0254		! 33 Radial Distance of Node -6
0.0254		! 34 Radial Distance of Node -7
0.0254		! 35 Radial Distance of Node -8
INPUTS 4
0,0		! [unconnected] Inlet Fluid Temperature - Pipe 1
0,0		! [unconnected] Inlet Fluid Flowrate - Pipe 1
0,0		! [unconnected] Inlet Fluid Temperature - Pipe 2
0,0		! [unconnected] Inlet Fluid Flowrate - Pipe 2
*** INITIAL INPUT VALUES
15.0 0.0 15.0 0.0 
*------------------------------------------------------------------------------

END
*!LINK_STYLE
*!LINK_STYLE_END
