VERSION 18
*******************************************************************************
*** TRNSYS input file (deck) generated by TrnsysStudio
*** on Monday, July 08, 2019 at 21:10
*** from TrnsysStudio project: C:\Trnsys18\Examples\PVT\PVT.tpf
***
*** If you edit this file, use the File/Import TRNSYS Input File function in
*** TrnsysStudio to update the project.
***
*** If you have problems, questions or suggestions please contact your local
*** TRNSYS distributor or mailto:software@cstb.fr
***
*******************************************************************************


*******************************************************************************
*** Units
*******************************************************************************

*******************************************************************************
*** Control cards
*******************************************************************************
* START, STOP and STEP
CONSTANTS 3
START=2880
STOP=3048
STEP=0.25
SIMULATION 	 START	 STOP	 STEP	! Start time	End time	Time step
TOLERANCES 0.001 0.001			! Integration	 Convergence
LIMITS 30 500 50				! Max iterations	Max warnings	Trace limit
DFQ 1					! TRNSYS numerical integration solver method
WIDTH 80				! TRNSYS output file width, number of characters
LIST 					! NOLIST statement
					! MAP statement
SOLVER 0 1 1				! Solver statement	Minimum relaxation factor	Maximum relaxation factor
NAN_CHECK 0				! Nan DEBUG statement
OVERWRITE_CHECK 0			! Overwrite DEBUG statement
TIME_REPORT 0			! disable time report
EQSOLVER 0				! EQUATION SOLVER statement
* User defined CONSTANTS
*$USER_CONSTANTS
EQUATIONS 1
nPlots = (STOP-START)/168.
*$USER_CONSTANTS_END


* Model "PV/T" (Type 50)
*

UNIT 2 TYPE 50	 PV/T
*$UNIT_NAME PV/T
*$MODEL .\Solar Thermal Collectors\PV-Thermal Collectors\Flat Plate Collectors\Loss=f(T,WS,G) and t=f(angle)\Type50d.tmf
*$POSITION 207 182
*$LAYER Main #
PARAMETERS 13
4		! 1 Mode
12		! 2 Collector Area
0.7		! 3 Collector Efficiency Factor
4.19		! 4 Fluid Thermal Capacitance
0.9		! 5 Collector plate absorptance
1		! 6 Number of glass covers
0.9		! 7 Collector plate emittance
20		! 8 Loss coefficient for bottom and edge losses
45		! 9 Collector slope
0.03		! 10 Extinction coefficient thickness product
-0.0003		! 11 Temperature coefficient of PV cell efficiency
20		! 12 Temperature for cell reference efficiency
0.5		! 13 Packing factor
INPUTS 8
21,1 		! coll pump:Outlet fluid temperature ->Inlet fluid temperature
21,2 		! coll pump:Outlet flow rate ->Fluid mass flow rate
4,1 		! Boulder, CO:Dry bulb temperature ->Ambient temperature
4,25 		! Boulder, CO:Beam radiation for surface ->Incident beam radiation
4,28 		! Boulder, CO:Total diffuse radiation for surface ->Incident diffuse radiation
4,29 		! Boulder, CO:Angle of incidence for surface ->Incidence angle of beam radiation
4,8 		! Boulder, CO:Wind velocity ->Windspeed
0,0		! [unconnected] Cell Efficiency at reference conditions
*** INITIAL INPUT VALUES
0 0 0 0 0 0 0 0.2
*------------------------------------------------------------------------------

* Model "LIQUID SIDE" (Type 65)
*

UNIT 3 TYPE 65	 LIQUID SIDE
*$UNIT_NAME LIQUID SIDE
*$MODEL .\Output\Online Plotter\Online Plotter Without File\Type65d.tmf
*$POSITION 1091 522
*$LAYER Outputs #
PARAMETERS 12
5		! 1 Nb. of left-axis variables
3		! 2 Nb. of right-axis variables

-30		! 3 Left axis minimum
40		! 4 Left axis maximum
0.0		! 5 Right axis minimum
5000		! 6 Right axis maximum
nPlots		! 7 Number of plots per simulation
7		! 8 X-axis gridpoints
0		! 9 Shut off Online w/o removing
-1		! 10 Logical unit for output file
0		! 11 Output file units
0		! 12 Output file delimiter

INPUTS 8
4,1 		! Boulder, CO:Dry bulb temperature ->Left axis variable-1
2,1 		! PV/T:Outlet fluid temperature ->Left axis variable-2
16,1 		! tank:Fluid temperature ->Left axis variable-3
21,1 		! coll pump:Outlet fluid temperature ->Left axis variable-4
17,1 		! fill pump:Outlet fluid temperature ->Left axis variable-5
2,2 		! PV/T:Fluid flowrate ->Right axis variable-1
23,4 		! div-1:Flow rate at outlet 2 ->Right axis variable-2
17,2 		! fill pump:Outlet flow rate ->Right axis variable-3
*** INITIAL INPUT VALUES
T_ambDB Tout_coll T_tank Tout_collPump Tout_fill mOut_coll mOut_load
mOut_fill
LABELS  3
"Temperature [C]"
"Flow Rate [kg/h]"
"liquid loop"
*------------------------------------------------------------------------------

* Model "Boulder, CO" (Type 15)
*

UNIT 4 TYPE 15	 Boulder, CO
*$UNIT_NAME Boulder, CO
*$MODEL .\Weather Data Reading and Processing\Standard Format\TMY2\Type15-2.tmf
*$POSITION 69 182
*$LAYER Main #
PARAMETERS 9
2		! 1 File Type
30		! 2 Logical unit
3		! 3 Tilted Surface Radiation Mode
0.2		! 4 Ground reflectance - no snow
0.7		! 5 Ground reflectance - snow cover
1		! 6 Number of surfaces
1		! 7 Tracking mode
40		! 8 Slope of surface
0		! 9 Azimuth of surface
*** External files
ASSIGN "C:\Trnsys18\Weather\US-TMY2\US-CO-Boulder-94018.tm2" 30
*|? Which file contains the TMY-2 weather data? |1000
*------------------------------------------------------------------------------

* Model "ELECTRICAL SIDE" (Type 65)
*

UNIT 5 TYPE 65	 ELECTRICAL SIDE
*$UNIT_NAME ELECTRICAL SIDE
*$MODEL .\Output\Online Plotter\Online Plotter Without File\Type65d.tmf
*$POSITION 1011 820
*$LAYER Outputs #
PARAMETERS 12
7		! 1 Nb. of left-axis variables
1		! 2 Nb. of right-axis variables
-5000		! 3 Left axis minimum
5000		! 4 Left axis maximum
-2		! 5 Right axis minimum
2		! 6 Right axis maximum
nPlots		! 7 Number of plots per simulation
7		! 8 X-axis gridpoints
0		! 9 Shut off Online w/o removing
-1		! 10 Logical unit for output file
0		! 11 Output file units
0		! 12 Output file delimiter
INPUTS 8
2,6 		! PV/T:Electrical power output ->Left axis variable-1
pLoad		! pLoad:pLoad ->Left axis variable-2
7,1 		! inverter / charge controller:Power in from generation ->Left axis variable-3
7,3 		! inverter / charge controller:Power to load ->Left axis variable-4
7,2 		! inverter / charge controller:Power to or from battery ->Left axis variable-5
7,4 		! inverter / charge controller:Dumped generated power ->Left axis variable-6
7,5 		! inverter / charge controller:Power from grid ->Left axis variable-7
14,2 		! battery bank:Fractional state of charge ->Right axis variable
*** INITIAL INPUT VALUES
p_PV p_Load p_inGen(T48) p_outLoad(T48) p_tofromBatt p_toDump p_fromGrid
fSOC_battery
LABELS  3
"Power [kJ/h]"
"various"
"electrical side"
*------------------------------------------------------------------------------

* Model "inverter / charge controller" (Type 48)
*

UNIT 7 TYPE 48	 inverter / charge controller
*$UNIT_NAME inverter / charge controller
*$MODEL .\Electrical\Regulators and Inverters\System w_ battery storage\MPP Tracking\SOC monitoring only\Type48b.tmf
*$POSITION 430 622
*$LAYER Main #
PARAMETERS 7
1		! 1 Mode
0.78		! 2 Regulator efficiency
0.96		! 3 Inverter efficiency
0.95		! 4 High limit on fractional state of charge (FSOC)
0.1		! 5 Low limit on FSOC
0		! 6 charge to discharge limit on FSOC
3600		! 7 Inverter ouput power capacity
INPUTS 3
2,6 		! PV/T:Electrical power output ->Input power
pLoad		! pLoad:pLoad ->Load power
14,2 		! battery bank:Fractional state of charge ->Battery fractional state of charge
*** INITIAL INPUT VALUES
0 0 1
*------------------------------------------------------------------------------

* Model "M-F eqp/lgt" (Type 14)
*

UNIT 9 TYPE 14	 M-F eqp/lgt
*$UNIT_NAME M-F eqp/lgt
*$MODEL .\Utility\Forcing Functions\General\Type14h.tmf
*$POSITION 848 538
*$LAYER Main #
PARAMETERS 44
0		! 1 Initial value of time
0.05		! 2 Initial value of function
5		! 3 Time at point-1
0.05		! 4 Value at point -1
5		! 5 Time at point-2
0.1		! 6 Value at point -2
7		! 7 Time at point-3
0.1		! 8 Value at point -3
7		! 9 Time at point-4
0.3		! 10 Value at point -4
8		! 11 Time at point-5
0.3		! 12 Value at point -5
8		! 13 Time at point-6
0.9		! 14 Value at point -6
12		! 15 Time at point-7
0.9		! 16 Value at point -7
12		! 17 Time at point-8
0.8		! 18 Value at point -8
13		! 19 Time at point-9
0.8		! 20 Value at point -9
13		! 21 Time at point-10
0.9		! 22 Value at point -10
17		! 23 Time at point-11
0.9		! 24 Value at point -11
17		! 25 Time at point-12
0.5		! 26 Value at point -12
18		! 27 Time at point-13
0.5		! 28 Value at point -13
18		! 29 Time at point-14
0.3		! 30 Value at point -14
20		! 31 Time at point-15
0.3		! 32 Value at point -15
20		! 33 Time at point-16
0.2		! 34 Value at point -16
22		! 35 Time at point-17
.2		! 36 Value at point -17
22		! 37 Time at point-18
0.1		! 38 Value at point -18
23		! 39 Time at point-19
0.1		! 40 Value at point -19
23		! 41 Time at point-20
0.05		! 42 Value at point -20
24		! 43 Time at point-21
0.05		! 44 Value at point -21
*------------------------------------------------------------------------------

* Model "Sa eqp/lgt" (Type 14)
*

UNIT 10 TYPE 14	 Sa eqp/lgt
*$UNIT_NAME Sa eqp/lgt
*$MODEL .\Utility\Forcing Functions\General\Type14h.tmf
*$POSITION 847 621
*$LAYER Main #
PARAMETERS 20
0		! 1 Initial value of time
0.05		! 2 Initial value of function
6		! 3 Time at point-1
0.05		! 4 Value at point -1
6		! 5 Time at point-2
.1		! 6 Value at point -2
8		! 7 Time at point-3
.1		! 8 Value at point -3
8		! 9 Time at point-4
.3		! 10 Value at point -4
12		! 11 Time at point-5
0.3		! 12 Value at point -5
12		! 13 Time at point-6
0.15		! 14 Value at point -6
17		! 15 Time at point-7
0.15		! 16 Value at point -7
17		! 17 Time at point-8
0.05		! 18 Value at point -8
24		! 19 Time at point-9
0.05		! 20 Value at point -9
*------------------------------------------------------------------------------

* Model "Su eqp/lgt" (Type 14)
*

UNIT 11 TYPE 14	 Su eqp/lgt
*$UNIT_NAME Su eqp/lgt
*$MODEL .\Utility\Forcing Functions\General\Type14h.tmf
*$POSITION 847 688
*$LAYER Main #
PARAMETERS 4
0		! 1 Initial value of time
0.05		! 2 Initial value of function
24		! 3 Time at point
0.05		! 4 Value at point
*------------------------------------------------------------------------------

* Model "eqp/lgt sched" (Type 41)
*

UNIT 12 TYPE 41	 eqp/lgt sched
*$UNIT_NAME eqp/lgt sched
*$MODEL .\Utility\Forcing Function Sequencers\Unique Days of the Week\Type41c.tmf
*$POSITION 681 602
*$LAYER Main #
PARAMETERS 8
1		! 1 Number of profiles for each day
1		! 2 Input set for day 1
2		! 3 Input set for day 2
3		! 4 Input set for day 3
4		! 5 Input set for day 4
5		! 6 Input set for day 5
6		! 7 Input set for day 6
7		! 8 Input set for day 7
INPUTS 7
9,1 		! M-F eqp/lgt:Average value of function ->First day input
9,1 		! M-F eqp/lgt:Average value of function ->Second day input
9,1 		! M-F eqp/lgt:Average value of function ->Third day input
9,1 		! M-F eqp/lgt:Average value of function ->Fourth day input
9,1 		! M-F eqp/lgt:Average value of function ->Fifth day input
10,1 		! Sa eqp/lgt:Average value of function ->Sixth day input
11,1 		! Su eqp/lgt:Average value of function ->Seventh day input
*** INITIAL INPUT VALUES
0 0 0 0 0 0 0
*------------------------------------------------------------------------------

* EQUATIONS "pLoad"
*
EQUATIONS 1
pLoad = 500.*3.6*[12,1]
*$UNIT_NAME pLoad
*$LAYER Main
*$POSITION 573 602
*$UNIT_NUMBER 13

*------------------------------------------------------------------------------


* Model "battery bank" (Type 47)
*

UNIT 14 TYPE 47	 battery bank
*$UNIT_NAME battery bank
*$MODEL .\Electrical\Batteries\Power as an input\dQ_dt=P eff\Type47a.tmf
*$POSITION 237 622
*$LAYER Main #
PARAMETERS 5
1		! 1 Mode
200		! 2 Cell Energy Capacity
1		! 3 Cells in parallel
6		! 4 Cells in series
0.9		! 5 Charging efficiency
INPUTS 1
7,2 		! inverter / charge controller:Power to or from battery ->Power to or from battery
*** INITIAL INPUT VALUES
0
DERIVATIVES 1
20		! 1 State of charge1
*------------------------------------------------------------------------------

* Model "POWER" (Type 46)
*

UNIT 15 TYPE 46	 POWER
*$UNIT_NAME POWER
*$MODEL .\Output\Printegrator\Unformatted\User-Defined Period\Type46a.tmf
*$POSITION 1051 34
*$LAYER Outputs #
*$# PRINTEGRATOR
PARAMETERS 5
31		! 1 Logical unit
-1		! 2 Logical unit for monthly summaries
0		! 3 Relative or absolute start time
168		! 4 Printing & integrating interval
0		! 5 Number of inputs to avoid integration
INPUTS 2
2,3 		! PV/T:Rate of useful energy gain ->Input to be integrated & printed-1
2,6 		! PV/T:Electrical power output ->Input to be integrated & printed-2
*** INITIAL INPUT VALUES
qThermal qElectrical
LABELS 2
[kJ] [kJ]
*** External files
ASSIGN "***.weekly" 31
*|? Output file for integrated results? |1000
*------------------------------------------------------------------------------

* Model "tank" (Type 39)
*

UNIT 16 TYPE 39	 tank
*$UNIT_NAME tank
*$MODEL .\Thermal Storage\Variable Volume Tank\Type39.tmf
*$POSITION 662 202
*$LAYER Water Loop #
PARAMETERS 12
2		! 1 Tank operation mode
10		! 2 Overall tank volume
1.0		! 3 Minimum fluid volume
9		! 4 Maximum fluid volume
7.5		! 5 Tank circumference
2		! 6 Cross-sectional area
6.0		! 7 Wetted loss coefficient
4.0		! 8 Dry loss coefficient
4.190		! 9 Fluid specific heat
1000.0		! 10 Fluid density
22.0		! 11 Initial fluid temperature
5		! 12 Initial fluid volume
INPUTS 4
18,1 		! mix-1:Outlet temperature ->Inlet temperature
18,2 		! mix-1:Outlet flow rate ->Inlet flow rate
mOut		! flow control:mOut ->Flow rate to load
0,0		! [unconnected] Environment temperature
*** INITIAL INPUT VALUES
25.0 0. 0 15.0
*------------------------------------------------------------------------------

* Model "fill pump" (Type 114)
*

UNIT 17 TYPE 114	 fill pump
*$UNIT_NAME fill pump
*$MODEL .\Hydronics\Pumps\Single Speed\Type114.tmf
*$POSITION 394 330
*$LAYER Main #
*$# SINGLE-SPEED PUMP
PARAMETERS 4
600		! 1 Rated flow rate
4.19		! 2 Fluid specific heat
2684.0		! 3 Rated power
0.0		! 4 Motor heat loss fraction
INPUTS 5
0,0		! [unconnected] Inlet fluid temperature
0,0		! [unconnected] Inlet fluid flow rate
26,1 		! yFill:Output control function ->Control signal
0,0		! [unconnected] Overall pump efficiency
0,0		! [unconnected] Motor efficiency
*** INITIAL INPUT VALUES
10 0 0 0.6 0.9
*------------------------------------------------------------------------------

* Model "mix-1" (Type 11)
*

UNIT 18 TYPE 11	 mix-1
*$UNIT_NAME mix-1
*$MODEL .\Hydronics\Tee-Piece Flow Mixer\Other Fluids\Type11h.tmf
*$POSITION 442 182
*$LAYER Water Loop #
PARAMETERS 1
1		! 1 Tee piece mode
INPUTS 4
2,1 		! PV/T:Outlet fluid temperature ->Temperature at inlet 1
2,2 		! PV/T:Fluid flowrate ->Flow rate at inlet 1
17,1 		! fill pump:Outlet fluid temperature ->Temperature at inlet 2
17,2 		! fill pump:Outlet flow rate ->Flow rate at inlet 2
*** INITIAL INPUT VALUES
20.0 0 20.0 0
*------------------------------------------------------------------------------

* Model "coll pump" (Type 114)
*

UNIT 21 TYPE 114	 coll pump
*$UNIT_NAME coll pump
*$MODEL .\Hydronics\Pumps\Single Speed\Type114.tmf
*$POSITION 250 496
*$LAYER Main #
*$# SINGLE-SPEED PUMP
PARAMETERS 4
450		! 1 Rated flow rate
4.19		! 2 Fluid specific heat
2684.0		! 3 Rated power
0.0		! 4 Motor heat loss fraction
INPUTS 5
23,1 		! div-1:Temperature at outlet 1 ->Inlet fluid temperature
23,2 		! div-1:Flow rate at outlet 1 ->Inlet fluid flow rate
25,1 		! yColl:Output control function ->Control signal
0,0		! [unconnected] Overall pump efficiency
0,0		! [unconnected] Motor efficiency
*** INITIAL INPUT VALUES
20.0 0 0 0.6 0.9
*------------------------------------------------------------------------------

* EQUATIONS "flow control"
*
EQUATIONS 5
mLoad = 200.*[24,1]
mCollRet = [21,2]
mOut = mLoad+mCollRet
f2Load = mLoad/MAX(0.0001,mOut)
f2Coll = [21,2]/MAX(0.0001,mOut)
*$UNIT_NAME flow control
*$LAYER Main
*$POSITION 957 202
*$UNIT_NUMBER 20

*------------------------------------------------------------------------------


* Model "div-1" (Type 11)
*

UNIT 23 TYPE 11	 div-1
*$UNIT_NAME div-1
*$MODEL .\Hydronics\Flow Diverter\Other Fluids\Type11f.tmf
*$POSITION 837 340
*$LAYER Water Loop #
PARAMETERS 1
2		! 1 Controlled flow diverter mode
INPUTS 3
16,1 		! tank:Fluid temperature ->Inlet temperature
16,2 		! tank:Load flow rate ->Inlet flow rate
f2Load		! flow control:f2Load ->Control signal
*** INITIAL INPUT VALUES
20.0 0 0
*------------------------------------------------------------------------------

* Model "y DHW Load" (Type 14)
*

UNIT 24 TYPE 14	 y DHW Load
*$UNIT_NAME y DHW Load
*$MODEL .\Utility\Forcing Functions\General\Type14h.tmf
*$POSITION 829 74
*$LAYER Main #
PARAMETERS 44
0		! 1 Initial value of time
0		! 2 Initial value of function
2		! 3 Time at point-1
0		! 4 Value at point -1
2		! 5 Time at point-2
1		! 6 Value at point -2
4		! 7 Time at point-3
1		! 8 Value at point -3
4		! 9 Time at point-4
0		! 10 Value at point -4
6		! 11 Time at point-5
0		! 12 Value at point -5
6		! 13 Time at point-6
1		! 14 Value at point -6
12		! 15 Time at point-7
1		! 16 Value at point -7
12		! 17 Time at point-8
0		! 18 Value at point -8
14		! 19 Time at point-9
0		! 20 Value at point -9
14		! 21 Time at point-10
1		! 22 Value at point -10
16		! 23 Time at point-11
1		! 24 Value at point -11
16		! 25 Time at point-12
0		! 26 Value at point -12
18		! 27 Time at point-13
0		! 28 Value at point -13
18		! 29 Time at point-14
1		! 30 Value at point -14
19		! 31 Time at point-15
1		! 32 Value at point -15
19		! 33 Time at point-16
0		! 34 Value at point -16
20		! 35 Time at point-17
0		! 36 Value at point -17
20		! 37 Time at point-18
1		! 38 Value at point -18
22		! 39 Time at point-19
1		! 40 Value at point -19
22		! 41 Time at point-20
0		! 42 Value at point -20
24		! 43 Time at point-21
0		! 44 Value at point -21
*------------------------------------------------------------------------------

* Model "yColl" (Type 2)
*

UNIT 25 TYPE 2	 yColl
*$UNIT_NAME yColl
*$MODEL .\Controllers\Differential Controller w_ Hysteresis\for Temperatures\Complex Control Strategies\Solver 0 (Successive Substitution) Control Strategy\Type2b.tmf
*$POSITION 441 422
*$LAYER Controls #
*$# NOTE: This control strategy can only be used with solver 0 (Successive substitution)
*$#
PARAMETERS 2
5		! 1 No. of oscillations
100.0		! 2 High limit cut-out
INPUTS 6
2,1 		! PV/T:Outlet fluid temperature ->Upper input temperature Th
16,1 		! tank:Fluid temperature ->Lower input temperature Tl
0,0		! [unconnected] Monitoring temperature Tin
25,1 		! yColl:Output control function ->Input control function
0,0		! [unconnected] Upper dead band dT
0,0		! [unconnected] Lower dead band dT
*** INITIAL INPUT VALUES
20.0 10.0 20.0 0 10.0 2.0
*------------------------------------------------------------------------------

* Model "yFill" (Type 2)
*

UNIT 26 TYPE 2	 yFill
*$UNIT_NAME yFill
*$MODEL .\Controllers\Differential Controller w_ Hysteresis\generic\Complex Control Strategies\Solver 0 (Successive Substitution) Control Strategy\Type2d.tmf
*$POSITION 507 330
*$LAYER Controls #
*$# NOTE: This controller can only be used with Solver 0 (Successive substitution)
*$#
*$#
*$#
*$#
*$#
*$#
*$#
*$#
*$#
PARAMETERS 2
5		! 1 No. of oscillations
100.0		! 2 High limit cut-out
INPUTS 6
0,0		! [unconnected] Upper input value
16,9 		! tank:Level indicator ->Lower input value
0,0		! [unconnected] Monitoring value
26,1 		! yFill:Output control function ->Input control function
0,0		! [unconnected] Upper dead band
0,0		! [unconnected] Lower dead band
*** INITIAL INPUT VALUES
0 0.5 20.0 0 0.9 -0.9
*------------------------------------------------------------------------------

END
*!LINK_STYLE
*!LINK 26:17
*!CONNECTION_SET 0:20:40:20:3:12632256:2:0:1:490,324:439,324:417,324
*!LINK 16:26
*!CONNECTION_SET 0:40:40:20:2:12632256:2:0:1:645,216:549,216:549,324:530,324
*!LINK 26:26
*!CONNECTION_SET 0:40:40:40:4:12632256:2:0:1:490,344:466,344:466,367:549,367:549,344:530,344
*!LINK 2:25
*!CONNECTION_SET 40:40:0:0:1:12632256:2:0:1:230,196:252,196:252,396:424,396
*!LINK 16:25
*!CONNECTION_SET 0:40:40:0:2:12632256:2:0:1:645,216:621,216:621,396:464,396
*!LINK 25:25
*!CONNECTION_SET 0:40:40:40:4:12632256:2:0:1:424,436:400,436:400,459:483,459:483,436:464,436
*!LINK 25:21
*!CONNECTION_SET 0:20:40:0:3:12632256:2:0:1:424,416:295,416:295,470:272,470
*!LINK 16:3
*!CONNECTION_SET 40:20:0:20:3:0:0:0:1:685,196:910,196:910,516:1071,516
*!LINK 23:3
*!CONNECTION_SET 40:0:0:20:7:0:0:0:1:860,314:1039,314:1039,516:1071,516
*!LINK 21:3
*!CONNECTION_SET 40:20:0:20:4:0:0:0:1:272,490:1039,490:1039,516:1071,516
*!LINK 17:3
*!CONNECTION_SET 40:40:0:20:5,8:0:0:0:1:417,344:439,344:439,390:1039,390:1039,516:1071,516
*!LINK 24:20
*!CONNECTION_SET 37:20:0:0:2:12632256:2:0:1:848,68:909,68:909,176:937,176
*!LINK 23:21
*!CONNECTION_SET 40:40:40:20:2,1:15780518:0:3:1:948,354:969,354:969,490:360,490
*!LINK 20:23
*!CONNECTION_SET 0:20:20:0:3:12632256:2:0:0:1025,213:928,213:928,331
*!LINK 16:23
*!CONNECTION_SET 40:40:0:20:2,1:15780518:0:3:1:773,216:882,216:882,334:908,334
*!LINK 20:16
*!CONNECTION_SET 0:20:40:20:3:12632256:2:0:1:1025,196:792,196:773,196
*!LINK 21:20
*!CONNECTION_SET 40:0:40:20:1:12632256:2:0:1:360,470:1094,470:1094,196:1065,196
*!LINK 18:16
*!CONNECTION_SET 40:20:0:0:2,1:15780518:0:3:1:553,176:709,176:733,176
*!LINK 21:2
*!CONNECTION_SET 0:20:0:40:2,1:15780518:0:3:1:320,490:250,490:250,196:278,196
*!LINK 17:18
*!CONNECTION_SET 20:0:0:40:4,3:15780518:0:3:0:485,304:485,196:513,196
*!LINK 2:18
*!CONNECTION_SET 40:0:0:0:2,1:15780518:0:3:1:318,156:485,156:513,156
*!LINK 7:14
*!CONNECTION_SET 0:32:32:32:1:8388736:0:0:1:502,517:375,517:341,517
*!LINK 14:7
*!CONNECTION_SET 32:16:0:16:3:12632256:2:0:1:341,501:431,501:502,501
*!LINK 13:7
*!CONNECTION_SET 0:20:32:0:2:8388736:0:0:1:642,485:605,485:534,485
*!LINK 12:13
*!CONNECTION_SET 0:20:40:20:1:15780518:2:0:1:749,485:699,485:682,485
*!LINK 2:7
*!CONNECTION_SET 40:20:0:0:1:8388736:0:0:1:318,176:431,176:431,596:502,596
*!LINK 4:2
*!CONNECTION_SET 40:20:0:20:7,6,5,4,3:12639424:0:0:1:89,281:162,281:190,281
*!LINK 11:12
*!CONNECTION_SET 0:20:40:20:7:15780518:2:0:1:180,657:84,657:84,571:51,571
*!LINK 10:12
*!CONNECTION_SET 0:20:40:20:6:15780518:2:0:1:180,590:84,590:84,571:51,571
*!LINK 9:12
*!CONNECTION_SET 0:20:40:20:5,4,3,2,1:15780518:2:0:1:180,507:84,507:84,571:51,571
*!LINK 2:3
*!CONNECTION_SET 40:20:0:20:2,6:0:0:0:1:230,176:398,176:398,294:1071,294:1071,516
*!LINK 4:3
*!CONNECTION_SET 40:20:0:20:1:0:0:0:1:89,176:118,176:118,533:801,533:801,502:1071,502:1071,516
*!LINK 2:5
*!CONNECTION_SET 40:20:0:20:1:0:0:0:1:230,176:398,176:398,294:991,294:991,814
*!LINK 13:5
*!CONNECTION_SET 0:20:0:20:2:0:0:0:1:554,596:536,596:536,814:991,814
*!LINK 7:5
*!CONNECTION_SET 32:0:0:20:5,7,6,4,3:0:0:0:1:446,596:517,596:517,814:991,814
*!LINK 14:5
*!CONNECTION_SET 32:32:0:20:8:0:0:0:1:253,628:287,628:287,814:991,814
*!LINK 2:15
*!CONNECTION_SET 40:20:0:22:2,1:0:0:0:1:230,176:252,176:252,27:1034,27
*!LINK_STYLE_END
*!TEXT_COMPONENT 53:672:53:672:715:811:Times New Roman:10:13:0:400:0:0:0:0:1:1:0:0:0
*This example is designed to show the use of Types 47, 48, and 50. Electrical output from the Type50 PV/T array is sent to the inverter/charge controller (Type48). Electrical output is compared by the inverter/charge controller with a predefined electrical load (set by a combination of Type14s, Type41 and an equation). The charge controller then decides whether the electical generation should be used to meet the load or charge the battery. Be aware that Types47 and 48 must be used in matching modes. In other words, the battery bank mode parameter and the inverter / charge controller mode parameters must be compatible with each other.
*The thermal side of the example is somewhat contrived. The collector pump circulates water from the tank when the differential controller yColl determines that energy can be collected. The tank is emptied by a predefined load and is refilled by a fill pump when it reaches a low volume limit.
*!TEXT_COMPONENT_END
