VERSION 17.0
*******************************************************************************
*** TRNSYS input file (deck) generated by TrnsysStudio
*** on Sunday, July 07, 2019 at 23:41
*** from TrnsysStudio project: C:\Trnsys\17-2-Bee\MyProjects\Project22\Project22.tpf
***
*** If you edit this file, use the File/Import TRNSYS Input File function in
*** TrnsysStudio to update the project.
***
*** If you have problems, questions or suggestions please contact your local
*** TRNSYS distributor or mailto:software@cstb.fr
***
*******************************************************************************


*******************************************************************************
*** Units
*******************************************************************************

*******************************************************************************
*** Control cards
*******************************************************************************
* START, STOP and STEP
CONSTANTS 3
START=0
STOP=168
STEP=0.125
SIMULATION 	 START	 STOP	 STEP	! Start time	End time	Time step
TOLERANCES 0.001 0.001			! Integration	 Convergence
LIMITS 30 500 50				! Max iterations	Max warnings	Trace limit
DFQ 1					! TRNSYS numerical integration solver method
WIDTH 80				! TRNSYS output file width, number of characters
LIST 					! NOLIST statement
					! MAP statement
SOLVER 0 1 1				! Solver statement	Minimum relaxation factor	Maximum relaxation factor
NAN_CHECK 0				! Nan DEBUG statement
OVERWRITE_CHECK 0			! Overwrite DEBUG statement
TIME_REPORT 0			! disable time report
EQSOLVER 0				! EQUATION SOLVER statement
* User defined CONSTANTS


* EQUATIONS "Equa"
*
EQUATIONS 1
output = 1
*$UNIT_NAME Equa
*$LAYER Main
*$POSITION 212 106

*------------------------------------------------------------------------------


* EQUATIONS "Equa-2"
*
EQUATIONS 1
output = 1
*$UNIT_NAME Equa-2
*$LAYER Main
*$POSITION 458 106

*------------------------------------------------------------------------------


* EQUATIONS "Equa-3"
*
EQUATIONS 1
output = 1
*$UNIT_NAME Equa-3
*$LAYER Main
*$POSITION 212 191

*------------------------------------------------------------------------------


* EQUATIONS "Equa-4"
*
EQUATIONS 1
output = 1
*$UNIT_NAME Equa-4
*$LAYER Main
*$POSITION 458 191

*------------------------------------------------------------------------------


* EQUATIONS "Equa-5"
*
EQUATIONS 1
output = 1
*$UNIT_NAME Equa-5
*$LAYER Main
*$POSITION 212 276

*------------------------------------------------------------------------------


* EQUATIONS "Equa-6"
*
EQUATIONS 1
output = 1
*$UNIT_NAME Equa-6
*$LAYER Main
*$POSITION 458 276

*------------------------------------------------------------------------------


* EQUATIONS "Equa-7"
*
EQUATIONS 1
output = 1
*$UNIT_NAME Equa-7
*$LAYER Main
*$POSITION 212 361

*------------------------------------------------------------------------------


* EQUATIONS "Equa-8"
*
EQUATIONS 1
output = 1
*$UNIT_NAME Equa-8
*$LAYER Main
*$POSITION 458 361

*------------------------------------------------------------------------------


* EQUATIONS "Equa-9"
*
EQUATIONS 1
output = 1
*$UNIT_NAME Equa-9
*$LAYER Main
*$POSITION 212 447

*------------------------------------------------------------------------------


* EQUATIONS "Equa-10"
*
EQUATIONS 1
output = 1
*$UNIT_NAME Equa-10
*$LAYER Main
*$POSITION 458 447

*------------------------------------------------------------------------------


END
